__1h36_A_rec_1h36_r88_lig_docked.pdb
 OpenBabel10201913263D

 25 27  0  0  0  0  0  0  0  0999 V2000
   37.1620   50.1410   45.0440 C   0  0  0  0  0  0  0  0  0  0  0  0
   36.0410   50.1840   44.1580 C   0  0  0  0  0  0  0  0  0  0  0  0
   35.0880   51.2260   44.2460 C   0  0  0  0  0  0  0  0  0  0  0  0
   35.2380   52.2530   45.2300 C   0  0  0  0  0  0  0  0  0  0  0  0
   36.3470   52.2200   46.1180 C   0  0  0  0  0  0  0  0  0  0  0  0
   37.3040   51.1730   46.0280 C   0  0  0  0  0  0  0  0  0  0  0  0
   38.1750   48.9970   44.9120 C   0  0  0  0  0  0  0  0  0  0  0  0
   38.9090   48.7530   45.8640 O   0  0  0  0  0  0  0  0  0  0  0  0
   38.3290   48.1290   43.6780 C   0  0  0  0  0  0  0  0  0  0  0  0
   38.8330   48.6550   42.4490 C   0  0  0  0  0  0  0  0  0  0  0  0
   38.9740   47.8100   41.3170 C   0  0  0  0  0  0  0  0  0  0  0  0
   38.6160   46.4370   41.4090 C   0  0  0  0  0  0  0  0  0  0  0  0
   38.8080   45.3340   39.9460 Br  0  0  0  0  0  0  0  0  0  0  0  0
   38.1140   45.9090   42.6280 C   0  0  0  0  0  0  0  0  0  0  0  0
   37.9720   46.7530   43.7570 C   0  0  0  0  0  0  0  0  0  0  0  0
   34.3110   53.2970   45.3300 O   0  0  0  0  0  0  0  0  0  0  0  0
   34.5280   54.2270   46.4040 C   0  0  0  0  0  0  0  0  0  0  0  0
   33.8730   55.5110   46.0050 C   0  0  0  0  0  0  0  0  0  0  0  0
   34.4710   56.4110   45.2300 C   0  0  0  0  0  0  0  0  0  0  0  0
   33.8250   57.7170   44.8060 C   0  0  0  0  0  0  0  0  0  0  0  0
   32.3150   57.7270   44.8280 N   0  0  0  0  0  0  0  0  0  0  0  0
   31.7170   58.0250   43.4910 C   0  0  0  0  0  0  0  0  0  0  0  0
   31.8150   58.5630   45.9750 C   0  0  0  0  0  0  0  0  0  0  0  0
   31.0610   57.9630   47.1970 C   0  0  0  0  0  0  0  0  0  0  0  0
   30.2810   58.7150   46.1000 C   0  0  0  0  0  0  0  0  0  0  0  0
  1  6  2  0  0  0  0
  1  7  1  0  0  0  0
  1  2  1  0  0  0  0
  2  3  2  0  0  0  0
  3  4  1  0  0  0  0
  4  5  2  0  0  0  0
  4 16  1  0  0  0  0
  5  6  1  0  0  0  0
  7  9  1  0  0  0  0
  7  8  2  0  0  0  0
  9 10  2  0  0  0  0
  9 15  1  0  0  0  0
 10 11  1  0  0  0  0
 11 12  2  0  0  0  0
 12 13  1  0  0  0  0
 12 14  1  0  0  0  0
 14 15  2  0  0  0  0
 16 17  1  0  0  0  0
 17 18  1  0  0  0  0
 18 19  2  0  0  0  0
 19 20  1  0  0  0  0
 20 21  1  0  0  0  0
 21 22  1  0  0  0  0
 21 23  1  0  0  0  0
 23 25  1  0  0  0  0
 23 24  1  0  0  0  0
 24 25  1  0  0  0  0
M  END
>  <MODEL>
       1

>  <COMPND>
    UNNAMED

>  <AUTHOR>
    GENERATED BY OPEN BABEL 2.4.90

>  <MASTER>
        0    0    0    0    0    0    0    0   25    0   25    0

