__4xli_B_rec_4xli_1n1_lig_min.pdb
 OpenBabel10171920533D

 33 36  0  0  0  0  0  0  0  0999 V2000
    6.9040    6.2090   22.9690 N   0  0  0  0  0  0  0  0  0  0  0  0
    6.0620    7.2160   23.3240 C   0  0  0  0  0  0  0  0  0  0  0  0
    5.0420    6.9230   24.2150 C   0  0  0  0  0  0  0  0  0  0  0  0
    4.1490    7.9270   24.6100 C   0  0  0  0  0  0  0  0  0  0  0  0
    5.3280    9.4590   23.2720 C   0  0  0  0  0  0  0  0  0  0  0  0
    5.4440   10.8410   22.7330 C   0  0  0  0  0  0  0  0  0  0  0  0
    4.3450    9.1990   24.1560 N   0  0  0  0  0  0  0  0  0  0  0  0
    6.1890    8.4920   22.8640 N   0  0  0  0  0  0  0  0  0  0  0  0
    0.7840    7.1640   27.0900 N   0  0  0  0  0  0  0  0  0  0  0  0
    1.7720    7.8870   24.9140 C   0  0  0  0  0  0  0  0  0  0  0  0
    3.0790    6.4100   26.2380 C   0  0  0  0  0  0  0  0  0  0  0  0
    3.0930    7.7020   25.5360 N   0  0  0  0  0  0  0  0  0  0  0  0
    0.8660    8.2430   26.0740 C   0  0  0  0  0  0  0  0  0  0  0  0
    2.1030    6.5250   27.4190 C   0  0  0  0  0  0  0  0  0  0  0  0
    0.0360    7.7640   28.2400 C   0  0  0  0  0  0  0  0  0  0  0  0
    0.7960    7.8930   29.5640 C   0  0  0  0  0  0  0  0  0  0  0  0
    1.2380    9.2530   29.7000 O   0  0  0  0  0  0  0  0  0  0  0  0
   10.1350    6.0520   21.6340 C   0  0  0  0  0  0  0  0  0  0  0  0
    9.8200    7.1630   20.8360 C   0  0  0  0  0  0  0  0  0  0  0  0
    8.0440    6.4270   22.2720 C   0  0  0  0  0  0  0  0  0  0  0  0
    9.1170    5.6210   22.4690 N   0  0  0  0  0  0  0  0  0  0  0  0
    8.1980    7.7170   21.1090 S   0  0  0  0  0  0  0  0  0  0  0  0
   10.6180    7.9690   19.8410 C   0  0  0  0  0  0  0  0  0  0  0  0
   11.6330    7.3000   19.3290 N   0  0  0  0  0  0  0  0  0  0  0  0
   10.3670    9.1410   19.5890 O   0  0  0  0  0  0  0  0  0  0  0  0
   14.1160    9.5230   16.8370 C   0  0  0  0  0  0  0  0  0  0  0  0
   14.4450    9.4520   18.1960 C   0  0  0  0  0  0  0  0  0  0  0  0
   13.6880    8.6800   19.0550 C   0  0  0  0  0  0  0  0  0  0  0  0
   14.0340    8.6060   20.4860 C   0  0  0  0  0  0  0  0  0  0  0  0
   12.5520    7.8960   18.5310 C   0  0  0  0  0  0  0  0  0  0  0  0
   12.2670    8.0590   17.1280 C   0  0  0  0  0  0  0  0  0  0  0  0
   13.0310    8.8590   16.3010 C   0  0  0  0  0  0  0  0  0  0  0  0
   10.8650    7.1590   16.5470 Cl  0  0  0  0  0  0  0  0  0  0  0  0
  1 20  1  0  0  0  0
  1  2  1  0  0  0  0
  2  8  2  0  0  0  0
  2  3  1  0  0  0  0
  3  4  2  0  0  0  0
  4  7  1  0  0  0  0
  4 12  1  0  0  0  0
  5  6  1  0  0  0  0
  5  8  1  0  0  0  0
  5  7  2  0  0  0  0
  9 13  1  0  0  0  0
  9 14  1  0  0  0  0
  9 15  1  0  0  0  0
 10 12  1  0  0  0  0
 10 13  1  0  0  0  0
 11 12  1  0  0  0  0
 11 14  1  0  0  0  0
 15 16  1  0  0  0  0
 16 17  1  0  0  0  0
 18 19  2  0  0  0  0
 18 21  1  0  0  0  0
 19 23  1  0  0  0  0
 19 22  1  0  0  0  0
 20 22  1  0  0  0  0
 20 21  2  0  0  0  0
 23 24  1  0  0  0  0
 23 25  2  0  0  0  0
 24 30  1  0  0  0  0
 26 32  2  0  0  0  0
 26 27  1  0  0  0  0
 27 28  2  0  0  0  0
 28 30  1  0  0  0  0
 28 29  1  0  0  0  0
 30 31  2  0  0  0  0
 31 32  1  0  0  0  0
 31 33  1  0  0  0  0
M  END
>  <COMPND>
    UNNAMED

>  <AUTHOR>
    GENERATED BY OPEN BABEL 2.4.90

>  <MASTER>
        0    0    0    0    0    0    0    0   33    0   33    0

